@<TRIPOS>MOLECULE
ATP.pdb
   43    45     1     0     0
SMALL
bcc


@<TRIPOS>ATOM
      1 P1          16.2230     8.1510    -1.0150 P.3        1 ATP       1.447900
      2 O1          17.5500     8.5360    -0.5150 O.co2      1 ATP      -0.947167
      3 O2          15.7480     6.8350    -0.4270 O.co2      1 ATP      -0.947167
      4 O3          16.2550     8.0140    -2.4380 O.co2      1 ATP      -0.947167
      5 P2          14.4710    10.5200    -1.4900 P.3        1 ATP       1.677800
      6 O4          13.9290     9.9200    -2.7000 O.co2      1 ATP      -0.918500
      7 O5          15.3180    11.7370    -1.6370 O.co2      1 ATP      -0.918500
      8 O6          15.1960     9.3630    -0.6810 O.3        1 ATP      -0.797800
      9 P3          11.9680     9.8680    -0.2600 P.3        1 ATP       1.607800
     10 O7          11.1000     9.8800    -1.4300 O.co2      1 ATP      -0.670500
     11 O8          12.4260     8.5140     0.1440 O.co2      1 ATP      -0.670500
     12 O9          13.2420    10.7950    -0.5670 O.3        1 ATP      -0.788800
     13 O10         11.3330    10.5910     1.0110 O.3        1 ATP      -0.606200
     14 C1          12.0920    10.3730     2.2270 C.3        1 ATP       0.168400
     15 C2          11.2380     9.9220     3.4060 C.3        1 ATP       0.096100
     16 O11         10.0030    10.6810     3.3860 O.3        1 ATP      -0.433600
     17 C3          10.7220     8.4980     3.3950 C.3        1 ATP       0.112100
     18 O12         11.7050     7.5330     3.7170 O.3        1 ATP      -0.673800
     19 C4           9.5600     8.6060     4.4010 C.3        1 ATP       0.114100
     20 O13          9.9420     8.5620     5.7640 O.3        1 ATP      -0.619800
     21 C5           8.9880     9.9570     4.0850 C.3        1 ATP       0.240800
     22 N1           7.7780     9.9240     3.2360 N.pl3      1 ATP      -0.274000
     23 C6           7.8840     9.9060     1.8790 C.2        1 ATP       0.348700
     24 N2           6.7310     9.9040     1.2480 N.2        1 ATP      -0.775100
     25 C7           5.7960     9.9770     2.2530 C.ar       1 ATP      -0.111200
     26 C8           4.3730    10.0390     2.2440 C.ar       1 ATP       0.529200
     27 N3           3.6160    10.0010     1.1280 N.3        1 ATP      -0.889500
     28 N4           3.7560    10.0340     3.4450 N.ar       1 ATP      -0.778000
     29 C9           4.4990    10.0760     4.5820 C.ar       1 ATP       0.556900
     30 N5           5.8250    10.0530     4.7050 N.ar       1 ATP      -0.707000
     31 C10          6.4250     9.8730     3.4960 C.ar       1 ATP       0.386800
     32 H           12.5780    11.2890     2.4920 H          1 ATP       0.071200
     33 H1          12.7890     9.5870     2.0250 H          1 ATP       0.071200
     34 H2          11.8990    10.0480     4.2370 H          1 ATP       0.061700
     35 H3          10.4170     8.1430     2.4330 H          1 ATP       0.078700
     36 H4          12.0810     7.7330     4.5890 H          1 ATP       0.508000
     37 H5           8.8920     7.7760     4.2980 H          1 ATP       0.107700
     38 H6          10.5560     9.2890     5.9510 H          1 ATP       0.415000
     39 H7           8.6920    10.4080     5.0090 H          1 ATP       0.041700
     40 H8           8.7920     9.8950     1.3880 H          1 ATP       0.134800
     41 H9           4.0450    10.0040     0.2420 H          1 ATP       0.349800
     42 H10          2.6350     9.9700     1.2000 H          1 ATP       0.349800
     43 H11          3.9670    10.1330     5.4640 H          1 ATP      -0.001900
@<TRIPOS>BOND
     1     6     5 1   
     2     4     1 1   
     3     7     5 1   
     4     5     8 1   
     5     5    12 1   
     6    10     9 1   
     7     1     8 1   
     8     1     2 1   
     9     1     3 1   
    10    12     9 1   
    11     9    11 1   
    12     9    13 1   
    13    13    14 1   
    14    27    26 1   
    15    24    23 2   
    16    24    25 1   
    17    23    22 1   
    18    14    15 1   
    19    26    25 ar  
    20    26    28 ar  
    21    25    31 ar  
    22    22    31 1   
    23    22    21 1   
    24    16    15 1   
    25    16    21 1   
    26    17    15 1   
    27    17    18 1   
    28    17    19 1   
    29    28    29 ar  
    30    31    30 ar  
    31    21    19 1   
    32    19    20 1   
    33    29    30 ar  
    34    14    32 1   
    35    14    33 1   
    36    15    34 1   
    37    17    35 1   
    38    18    36 1   
    39    19    37 1   
    40    20    38 1   
    41    21    39 1   
    42    23    40 1   
    43    27    41 1   
    44    27    42 1   
    45    29    43 1   
@<TRIPOS>SUBSTRUCTURE
     1 ATP         1 TEMP              0 ****  ****    0 ROOT
