@<TRIPOS>MOLECULE
ATP.pdb
 43 45 0 0 0
SMALL
GASTEIGER

@<TRIPOS>ATOM
      1  P1        16.2230    8.1510   -1.0150 P.3     1  ATP1       -0.0068
      2  O1        17.5500    8.5360   -0.5150 O.co2   1  ATP1       -0.5767
      3  O2        15.7480    6.8350   -0.4270 O.co2   1  ATP1       -0.5767
      4  O3        16.2550    8.0140   -2.4380 O.2     1  ATP1       -0.6374
      5  P2        14.4710   10.5200   -1.4900 P.3     1  ATP1        0.2206
      6  O4        13.9290    9.9200   -2.7000 O.2     1  ATP1       -0.5169
      7  O5        15.3180   11.7370   -1.6370 O.co2   1  ATP1       -0.4370
      8  O6        15.1960    9.3630   -0.6810 O.3     1  ATP1       -0.3141
      9  P3        11.9680    9.8680   -0.2600 P.3     1  ATP1        0.2182
     10  O7        11.1000    9.8800   -1.4300 O.2     1  ATP1       -0.5170
     11  O8        12.4260    8.5140    0.1440 O.co2   1  ATP1       -0.4371
     12  O9        13.2420   10.7950   -0.5670 O.3     1  ATP1       -0.2702
     13  O10       11.3330   10.5910    1.0110 O.3     1  ATP1       -0.3246
     14  C1        12.0920   10.3730    2.2270 C.3     1  ATP1        0.0836
     15  C2        11.2380    9.9220    3.4060 C.3     1  ATP1        0.1133
     16  O11       10.0030   10.6810    3.3860 O.3     1  ATP1       -0.3456
     17  C3        10.7220    8.4980    3.3950 C.3     1  ATP1        0.1135
     18  O12       11.7050    7.5330    3.7170 O.3     1  ATP1       -0.3864
     19  C4         9.5600    8.6060    4.4010 C.3     1  ATP1        0.1285
     20  O13        9.9420    8.5620    5.7640 O.3     1  ATP1       -0.3847
     21  C5         8.9880    9.9570    4.0850 C.3     1  ATP1        0.1667
     22  N1         7.7780    9.9240    3.2360 N.ar    1  ATP1       -0.2855
     23  C6         7.8840    9.9060    1.8790 C.ar    1  ATP1        0.1004
     24  N2         6.7310    9.9040    1.2480 N.ar    1  ATP1       -0.2306
     25  C7         5.7960    9.9770    2.2530 C.ar    1  ATP1        0.1473
     26  C8         4.3730   10.0390    2.2440 C.ar    1  ATP1        0.1472
     27  N3         3.6160   10.0010    1.1280 N.pl3   1  ATP1       -0.3413
     28  N4         3.7560   10.0340    3.4450 N.ar    1  ATP1       -0.2188
     29  C9         4.4990   10.0760    4.5820 C.ar    1  ATP1        0.1205
     30  N5         5.8250   10.0530    4.7050 N.ar    1  ATP1       -0.2159
     31  C10        6.4250    9.8730    3.4960 C.ar    1  ATP1        0.1674
     32 H          12.5775   11.2891    2.4917 H       1  ATP1        0.0591
     33 H          12.7892    9.5868    2.0253 H       1  ATP1        0.0591
     34 H          11.8995   10.0483    4.2375 H       1  ATP1        0.0647
     35 H          10.4171    8.1425    2.4330 H       1  ATP1        0.0647
     36 H          12.0808    7.7327    4.5887 H       1  ATP1        0.2100
     37 H           8.8924    7.7761    4.2982 H       1  ATP1        0.0665
     38 H          10.5564    9.2889    5.9512 H       1  ATP1        0.2101
     39 H           8.6923   10.4079    5.0092 H       1  ATP1        0.0866
     40 H           8.7916    9.8949    1.3879 H       1  ATP1        0.1030
     41 H           4.0450   10.0038    0.2419 H       1  ATP1        0.1438
     42 H           2.6346    9.9704    1.1997 H       1  ATP1        0.1438
     43 H           3.9669   10.1331    5.4644 H       1  ATP1        0.1048
@<TRIPOS>BOND
     1     6     5    2
     2     4     1    2
     3     7     5    1
     4     5     8    1
     5     5    12    1
     6    10     9    2
     7     1     8    1
     8     1     2    1
     9     1     3    1
    10    12     9    1
    11     9    11    1
    12     9    13    1
    13    13    14    1
    14    27    26    1
    15    24    23   ar
    16    24    25   ar
    17    23    22   ar
    18    14    15    1
    19    26    25   ar
    20    26    28   ar
    21    25    31   ar
    22    22    31   ar
    23    22    21    1
    24    16    15    1
    25    16    21    1
    26    17    15    1
    27    17    18    1
    28    17    19    1
    29    28    29   ar
    30    31    30   ar
    31    21    19    1
    32    19    20    1
    33    29    30   ar
    34    14    32    1
    35    14    33    1
    36    15    34    1
    37    17    35    1
    38    18    36    1
    39    19    37    1
    40    20    38    1
    41    21    39    1
    42    23    40    1
    43    27    41    1
    44    27    42    1
    45    29    43    1
